pglib-opf-21.07/sad/pglib_opf_case24464_goc__sad.m
%%%%%%%%%%%%%%%%%%%%%%%%%%%%%%%%%%%%%%%%%%%%%%%%%%%%%%%%%%%%%%%%%%%%%%%%%%%
%%%%                                                                  %%%%%
%%%%    IEEE PES Power Grid Library - Optimal Power Flow - v21.07     %%%%%
%%%%          (https://github.com/power-grid-lib/pglib-opf)           %%%%%
%%%%             Benchmark Group - Small Angle Difference             %%%%%
%%%%                         29 - July - 2021                         %%%%%
%%%%                                                                  %%%%%
%%%%%%%%%%%%%%%%%%%%%%%%%%%%%%%%%%%%%%%%%%%%%%%%%%%%%%%%%%%%%%%%%%%%%%%%%%%
function mpc = pglib_opf_case24464_goc__sad
mpc.version = '2';
mpc.baseMVA = 100.0;

%% bus data
%	bus_i	type	Pd	Qd	Gs	Bs	area	Vm	Va	baseKV	zone	Vmax	Vmin
mpc.bus = [
	35250	 2	 0.0	 0.0	 0.0	 8.18710451892	 1	    1.00000	    0.00000	 500.0	 1	    1.10000	    0.90000;
	35251	 2	 0.0	 0.0	 0.0	 -12.8128873383	 1	    1.00000	    0.00000	 500.0	 1	    1.10000	    0.90000;
	35252	 2	 0.0	 0.0	 0.0	 -29.7158228619	 1	    1.00000	    0.00000	 500.0	 1	    1.10000	    0.90000;
	35254	 2	 0.0	 0.0	 0.0	 -48.0822528469	 1	    1.00000	    0.00000	 500.0	 1	    1.10000	    0.90000;
	35255	 2	 0.0	 0.0	 0.0	 -6.34448983833	 1	    1.00000	    0.00000	 500.0	 1	    1.10000	    0.90000;
	35256	 2	 0.0	 0.0	 0.0	 -28.6537780928	 1	    1.00000	    0.00000	 500.0	 1	    1.10000	    0.90000;
	35257	 2	 0.0	 0.0	 0.0	 -15.8362617339	 1	    1.00000	    0.00000	 500.0	 1	    1.10000	    0.90000;
	35259	 1	 0.0	 0.0	 0.0	 2.613	 1	    1.00000	    0.00000	 345.0	 1	    1.10000	    0.90000;
	35263	 1	 0.0	 0.0	 0.0	 53.375	 1	    1.00000	    0.00000	 138.0	 1	    1.10000	    0.90000;
	35264	 2	 0.0	 0.0	 0.0	 -24.673	 1	    1.00000	    0.00000	 230.0	 1	    1.10000	    0.90000;
	35265	 2	 0.0	 0.0	 0.0	 -28.2673385348	 1	    1.00000	    0.00000	 500.0	 1	    1.10000	    0.90000;
	35268	 1	 0.0	 0.0	 0.0	 -19.9084830571	 1	    1.00000	    0.00000	 500.0	 1	    1.10000	    0.90000;
	35272	 2	 0.0	 0.0	 0.0	 -40.231	 1	    1.00000	    0.00000	 138.0	 1	    1.10000	    0.90000;
	35275	 2	 0.0	 0.0	 0.0	 -31.529	 1	    1.00000	    0.00000	 138.0	 1	    1.10000	    0.90000;
	35276	 1	 0.0	 0.0	 0.0	 -1.645	 1	    1.00000	    0.00000	 138.0	 1	    1.10000	    0.90000;
	35277	 2	 0.0	 0.0	 0.0	 -28.975	 1	    1.00000	    0.00000	 138.0	 1	    1.10000	    0.90000;
	35279	 2	 0.0	 0.0	 0.0	 -33.402	 1	    1.00000	    0.00000	 138.0	 1	    1.10000	    0.90000;
	35280	 2	 0.0	 0.0	 0.0	 -11.889	 1	    1.00000	    0.00000	 138.0	 1	    1.10000	    0.90000;
	35281	 2	 0.0	 0.0	 0.0	 -24.389	 1	    1.00000	    0.00000	 138.0	 1	    1.10000	    0.90000;
	35285	 2	 50.98	 0.0	 0.0	 1.592	 1	    1.00000	    0.00000	 69.0	 1	    1.10000	    0.90000;
	35286	 1	 0.0	 0.0	 0.0	 12.131	 1	    1.00000	    0.00000	 230.0	 1	    1.10000	    0.90000;
	35287	 2	 0.0	 0.0	 0.0	 -7.148	 1	    1.00000	    0.00000	 138.0	 1	    1.10000	    0.90000;
	35288	 2	 0.0	 0.0	 0.0	 -23.381	 1	    1.00000	    0.00000	 69.0	 1	    1.10000	    0.90000;
	35289	 1	 0.0	 0.0	 0.0	 4.733	 1	    1.00000	    0.00000	 138.0	 1	    1.10000	    0.90000;
	35291	 1	 0.0	 0.0	 0.0	 -0.508	 1	    1.00000	    0.00000	 69.0	 1	    1.10000	    0.90000;
	35294	 2	 0.0	 0.0	 0.0	 -17.078	 1	    1.00000	    0.00000	 138.0	 1	    1.10000	    0.90000;
	35295	 1	 0.0	 0.0	 0.0	 13.302	 1	    1.00000	    0.00000	 138.0	 1	    1.10000	    0.90000;
	35297	 2	 0.0	 0.0	 0.0	 -33.891	 1	    1.00000	    0.00000	 138.0	 1	    1.10000	    0.90000;
	35298	 2	 0.0	 0.0	 0.0	 -34.181	 1	    1.00000	    0.00000	 138.0	 1	    1.10000	    0.90000;
	35300	 2	 0.0	 0.0	 0.0	 1.968	 1	    1.00000	    0.00000	 138.0	 1	    1.10000	    0.90000;
	35301	 2	 0.0	 0.0	 0.0	 -4.594	 1	    1.00000	    0.00000	 138.0	 1	    1.10000	    0.90000;
	35302	 2	 0.0	 0.0	 0.0	 -11.207	 1	    1.00000	    0.00000	 138.0	 1	    1.10000	    0.90000;
	35303	 1	 0.0	 0.0	 0.0	 -11.317	 1	    1.00000	    0.00000	 230.0	 1	    1.10000	    0.90000;
	35305	 1	 0.0	 0.0	 0.0	 25.69	 1	    1.00000	    0.00000	 230.0	 1	    1.10000	    0.90000;
	35306	 1	 0.0	 0.0	 0.0	 -9.244	 1	    1.00000	    0.00000	 230.0	 1	    1.10000	    0.90000;
	35307	 1	 0.0	 0.0	 0.0	 20.758	 1	    1.00000	    0.00000	 138.0	 1	    1.10000	    0.90000;
	35308	 2	 0.0	 0.0	 0.0	 -124.269	 1	    1.00000	    0.00000	 345.0	 1	    1.10000	    0.90000;
	35309	 1	 0.0	 0.0	 0.0	 172.827944368	 1	    1.00000	    0.00000	 765.0	 1	    1.10000	    0.90000;
	35311	 2	 0.0	 0.0	 0.0	 -100.0	 1	    1.00000	    0.00000	 765.0	 1	    1.10000	    0.90000;
	35314	 1	 0.0	 0.0	 0.0	 17.0665098377	 1	    1.00000	    0.00000	 765.0	 1	    1.10000	    0.90000;
	35323	 2	 0.0	 0.0	 0.0	 -26.1793013927	 1	    1.00000	    0.00000	 500.0	 1	    1.10000	    0.90000;
	35326	 1	 0.0	 0.0	 0.0	 -11.819	 1	    1.00000	    0.00000	 138.0	 1	    1.10000	    0.90000;
	35327	 1	 0.0	 0.0	 0.0	 8.41	 1	    1.00000	    0.00000	 230.0	 1	    1.10000	    0.90000;
	35328	 1	 0.0	 0.0	 0.0	 -2.827	 1	    1.00000	    0.00000	 138.0	 1	    1.10000	    0.90000;
	35330	 2	 0.0	 0.0	 0.0	 -18.808	 1	    1.00000	    0.00000	 138.0	 1	    1.10000	    0.90000;
	35331	 2	 0.0	 0.0	 0.0	 -18.459	 1	    1.00000	    0.00000	 138.0	 1	    1.10000	    0.90000;
	35332	 1	 0.0	 0.0	 0.0	 -0.609	 1	    1.00000	    0.00000	 138.0	 1	    1.10000	    0.90000;
	35334	 2	 0.0	 0.0	 0.0	 -31.438	 1	    1.00000	    0.00000	 230.0	 1	    1.10000	    0.90000;
	35335	 2	 0.0	 0.0	 0.0	 -57.673	 1	    1.00000	    0.00000	 138.0	 1	    1.10000	    0.90000;
	35336	 2	 0.0	 0.0	 0.0	 -56.03	 1	    1.00000	    0.00000	 138.0	 1	    1.10000	    0.90000;
	35337	 2	 0.0	 0.0	 0.0	 -10.684	 1	    1.00000	    0.00000	 138.0	 1	    1.10000	    0.90000;
	35338	 1	 0.0	 0.0	 0.0	 -67.369	 1	    1.00000	    0.00000	 345.0	 1	    1.10000	    0.90000;
	35343	 2	 0.0	 0.0	 0.0	 -18.7987767244	 1	    1.00000	    0.00000	 500.0	 1	    1.10000	    0.90000;
	35345	 2	 0.0	 0.0	 0.0	 -111.531887102	 1	    1.00000	    0.00000	 500.0	 1	    1.10000	    0.90000;
	35347	 2	 0.0	 0.0	 0.0	 -40.0	 1	    1.00000	    0.00000	 500.0	 1	    1.10000	    0.90000;
	35348	 2	 0.0	 0.0	 0.0	 -36.0	 1	    1.00000	    0.00000	 500.0	 1	    1.10000	    0.90000;
	35349	 2	 0.0	 0.0	 0.0	 -75.951	 1	    1.00000	    0.00000	 138.0	 1	    1.10000	    0.90000;
	35350	 2	 0.0	 0.0	 0.0	 -55.9034435355	 1	    1.00000	    0.00000	 500.0	 1	    1.10000	    0.90000;
	35351	 2	 0.0	 0.0	 0.0	 -44.8104546715	 1	    1.00000	    0.00000	 500.0	 1	    1.10000	    0.90000;
	35352	 2	 0.0	 0.0	 0.0	 -0.073	 1	    1.00000	    0.00000	 230.0	 1	    1.10000	    0.90000;
	35354	 2	 0.0	 0.0	 0.0	 -43.497	 1	    1.00000	    0.00000	 138.0	 1	    1.10000	    0.90000;
	35355	 2	 0.0	 0.0	 0.0	 -42.754	 1	    1.00000	    0.00000	 345.0	 1	    1.10000	    0.90000;
	35356	 2	 0.0	 0.0	 0.0	 -15.013	 1	    1.00000	    0.00000	 138.0	 1	    1.10000	    0.90000;
	35357	 2	 0.0	 0.0	 0.0	 -3.021	 1	    1.00000	    0.00000	 230.0	 1	    1.10000	    0.90000;
	35358	 1	 0.0	 0.0	 0.0	 2.279	 1	    1.00000	    0.00000	 138.0	 1	    1.10000	    0.90000;
	35360	 2	 0.0	 0.0	 0.0	 -14.204	 1	    1.00000	    0.00000	 138.0	 1	    1.10000	    0.90000;
	35362	 2	 0.0	 0.0	 0.0	 0.0	 1	    1.00000	    0.00000	 345.0	 1	    1.10000	    0.90000;
	35364	 1	 0.0	 0.0	 0.0	 0.113	 1	    1.00000	    0.00000	 230.0	 1	    1.10000	    0.90000;
	35365	 1	 0.0	 0.0	 0.0	 3.397	 1	    1.00000	    0.00000	 138.0	 1	    1.10000	    0.90000;
	35366	 2	 0.0	 0.0	 0.0	 -37.323	 1	    1.00000	    0.00000	 138.0	 1	    1.10000	    0.90000;
	35367	 1	 0.0	 0.0	 0.0	 -4.062	 1	    1.00000	    0.00000	 138.0	 1	    1.10000	    0.90000;
	35368	 2	 0.0	 0.0	 0.0	 -2.527	 1	    1.00000	    0.00000	 69.0	 1	    1.10000	    0.90000;
	35370	 2	 45.609	 0.0	 0.0	 14.536	 1	    1.00000	    0.00000	 69.0	 1	    1.10000	    0.90000;
	35371	 1	 0.0	 0.0	 0.0	 -2.465	 1	    1.00000	    0.00000	 138.0	 1	    1.10000	    0.90000;
	35372	 1	 79.311	 0.0	 0.0	 33.449	 1	    1.00000	    0.00000	 69.0	 1	    1.10000	    0.90000;
	35373	 1	 0.0	 0.0	 0.0	 -1.131	 1	    1.00000	    0.00000	 138.0	 1	    1.10000	    0.90000;
	35375	 1	 15.42	 0.0	 0.0	 5.944	 1	    1.00000	    0.00000	 69.0	 1	    1.10000	    0.90000;
	35376	 1	 0.0	 0.0	 0.0	 -1.439	 1	    1.00000	    0.00000	 138.0	 1	    1.10000	    0.90000;
	35381	 1	 0.0	 0.0	 0.0	 -82.8829625262	 1	    1.00000	    0.00000	 765.0	 1	    1.10000	    0.90000;
	35386	 1	 0.0	 0.0	 0.0	 -38.5760090379	 1	    1.00000	    0.00000	 500.0	 1	    1.10000	    0.90000;
	35387	 2	 0.0	 0.0	 0.0	 90.0	 1	    1.00000	    0.00000	 138.0	 1	    1.10000	    0.90000;
	35390	 1	 0.0	 0.0	 0.0	 92.649	 1	    1.00000	    0.00000	 345.0	 1	    1.10000	    0.90000;
	35391	 1	 0.0	 0.0	 0.0	 1.514	 1	    1.00000	    0.00000	 138.0	 1	    1.10000	    0.90000;
	35393	 1	 0.0	 0.0	 0.0	 -8.091	 1	    1.00000	    0.00000	 138.0	 1	    1.10000	    0.90000;
	35396	 2	 0.0	 0.0	 0.0	 -7.105	 1	    1.00000	    0.00000	 138.0	 1	    1.10000	    0.90000;
	35397	 2	 4.98	 1.494	 0.0	 0.0	 1	    1.00000	    0.00000	 69.0	 1	    1.10000	    0.90000;
	35398	 2	 0.0	 0.0	 0.0	 -40.126	 1	    1.00000	    0.00000	 138.0	 1	    1.10000	    0.90000;
	35399	 2	 0.0	 0.0	 0.0	 -22.381	 1	    1.00000	    0.00000	 138.0	 1	    1.10000	    0.90000;
	35401	 2	 0.0	 0.0	 0.0	 -41.752	 1	    1.00000	    0.00000	 138.0	 1	    1.10000	    0.90000;
	35403	 2	 0.0	 0.0	 0.0	 -17.908	 1	    1.00000	    0.00000	 138.0	 1	    1.10000	    0.90000;
	35404	 1	 0.0	 0.0	 0.0	 -6.954	 1	    1.00000	    0.00000	 138.0	 1	    1.10000	    0.90000;
	35406	 2	 0.0	 0.0	 0.0	 -16.566	 1	    1.00000	    0.00000	 138.0	 1	    1.10000	    0.90000;
	35408	 2	 0.0	 0.0	 0.0	 -17.348	 1	    1.00000	    0.00000	 138.0	 1	    1.10000	    0.90000;
	35409	 2	 0.0	 0.0	 0.0	 -34.632	 1	    1.00000	    0.00000	 138.0	 1	    1.10000	    0.90000;
	35410	 2	 0.0	 0.0	 0.0	 -33.658	 1	    1.00000	    0.00000	 138.0	 1	    1.10000	    0.90000;
	35412	 2	 0.0	 0.0	 0.0	 -26.843	 1	    1.00000	    0.00000	 138.0	 1	    1.10000	    0.90000;
	35413	 2	 9.4	 2.82	 0.0	 0.0	 1	    1.00000	    0.00000	 69.0	 1	    1.10000	    0.90000;
	35415	 2	 29.635	 0.0	 0.0	 5.231	 1	    1.00000	    0.00000	 69.0	 1	    1.10000	    0.90000;
	35416	 2	 0.0	 0.0	 0.0	 -0.737	 1	    1.00000	    0.00000	 138.0	 1	    1.10000	    0.90000;
	35417	 2	 0.0	 0.0	 0.0	 -32.642	 1	    1.00000	    0.00000	 138.0	 1	    1.10000	    0.90000;
	35419	 2	 0.0	 0.0	 0.0	 -10.645	 1	    1.00000	    0.00000	 138.0	 1	    1.10000	    0.90000;
	35420	 2	 36.299	 0.0	 0.0	 5.456	 1	    1.00000	    0.00000	 69.0	 1	    1.10000	    0.90000;
	35421	 1	 0.0	 0.0	 0.0	 2.003	 1	    1.00000	    0.00000	 138.0	 1	    1.10000	    0.90000;
	35422	 1	 6.369	 0.0	 0.0	 2.952	 1	    1.00000	    0.00000	 69.0	 1	    1.10000	    0.90000;
	35429	 1	 0.0	 0.0	 0.0	 16.968	 1	    1.00000	    0.00000	 230.0	 1	    1.10000	    0.90000;
	35430	 1	 36.56	 0.0	 0.0	 7.243	 1	    1.00000	    0.00000	 138.0	 1	    1.10000	    0.90000;
	35431	 1	 52.65	 0.0	 0.0	 0.853	 1	    1.00000	    0.00000	 500.0	 1	    1.10000	    0.90000;
	35432	 1	 30.67	 0.0	 0.0	 0.717	 1	    1.00000	    0.00000	 500.0	 1	    1.10000	    0.90000;
	35433	 1	 0.0	 0.0	 0.0	 5.156	 1	    1.00000	    0.00000	 138.0	 1	    1.10000	    0.90000;
	35435	 1	 0.0	 0.0	 0.0	 -9.1	 1	    1.00000	    0.00000	 138.0	 1	    1.10000	    0.90000;
	35436	 1	 4.488	 0.0	 0.0	 12.695	 1	    1.00000	    0.00000	 69.0	 1	    1.10000	    0.90000;
	35438	 1	 54.14	 0.0	 0.0	 1.348	 1	    1.00000	    0.00000	 500.0	 1	    1.10000	    0.90000;
	35441	 1	 0.0	 0.0	 0.0	 -38.084	 1	    1.00000	    0.00000	 500.0	 1	    1.10000	    0.90000;
	35442	 1	 19.3	 0.0	 0.0	 5.259	 1	    1.00000	    0.00000	 500.0	 1	    1.10000	    0.90000;
	35443	 1	 0.0	 0.0	 0.0	 7.181	 1	    1.00000	    0.00000	 138.0	 1	    1.10000	    0.90000;
	35445	 1	 0.0	 0.0	 0.0	 0.717	 1	    1.00000	    0.00000	 138.0	 1	    1.10000	    0.90000;
	35457	 1	 11.751	 0.0	 0.0	 7.43066207433	 1	    1.00000	    0.00000	 69.0	 1	    1.10000	    0.90000;
	35464	 1	 0.0	 0.0	 0.0	 2.202	 1	    1.00000	    0.00000	 138.0	 1	    1.10000	    0.90000;
	35468	 1	 4.553	 0.0	 0.0	 1.243	 1	    1.00000	    0.00000	 69.0	 1	    1.10000	    0.90000;
	35469	 1	 0.0	 0.0	 0.0	 0.087	 1	    1.00000	    0.00000	 230.0	 1	    1.10000	    0.90000;
	35470	 1	 2.427	 0.0	 0.0	 0.677	 1	    1.00000	    0.00000	 69.0	 1	    1.10000	    0.90000;
	35475	 1	 0.0	 0.0	 0.0	 -0.012	 1	    1.00000	    0.00000	 230.0	 1	    1.10000	    0.90000;
	35477	 1	 0.0	 0.0	 0.0	 3.187	 1	    1.00000	    0.00000	 138.0	 1	    1.10000	    0.90000;
	35478	 1	 30.41	 0.0	 0.0	 13.282	 1	    1.00000	    0.00000	 138.0	 1	    1.10000	    0.90000;
	35479	 1	 0.0	 0.0	 0.0	 8.453	 1	    1.00000	    0.00000	 230.0	 1	    1.10000	    0.90000;
	35480	 1	 0.0	 0.0	 0.0	 -1.405	 1	    1.00000	    0.00000	 138.0	 1	    1.10000	    0.90000;
	35481	 1	 0.0	 0.0	 0.0	 2.281	 1	    1.00000	    0.00000	 138.0	 1	    1.10000	    0.90000;
	35482	 1	 7.99	 0.0	 0.0	 1.848	 1	    1.00000	    0.00000	 138.0	 1	    1.10000	    0.90000;
	35483	 1	 0.0	 0.0	 0.0	 -7.12	 1	    1.00000	    0.00000	 138.0	 1	    1.10000	    0.90000;
	35484	 1	 4.17	 1.64	 0.0	 0.0	 1	    1.00000	    0.00000	 69.0	 1	    1.10000	    0.90000;
	35485	 1	 25.07	 0.0	 0.0	 5.224	 1	    1.00000	    0.00000	 138.0	 1	    1.10000	    0.90000;
	35486	 1	 0.0	 0.0	 0.0	 11.812	 1	    1.00000	    0.00000	 138.0	 1	    1.10000	    0.90000;
	35487	 1	 0.0	 0.0	 0.0	 0.019	 1	    1.00000	    0.00000	 230.0	 1	    1.10000	    0.90000;
	35488	 1	 5.331	 0.0	 0.0	 1.671	 1	    1.00000	    0.00000	 69.0	 1	    1.10000	    0.90000;
	35490	 1	 6.209	 0.0	 0.0	 1.848	 1	    1.00000	    0.00000	 69.0	 1	    1.10000	    0.90000;
	35492	 1	 0.0	 0.0	 0.0	 -2.77	 1	    1.00000	    0.00000	 138.0	 1	    1.10000	    0.90000;
	35493	 1	 0.0	 0.0	 0.0	 -0.967	 1	    1.00000	    0.00000	 138.0	 1	    1.10000	    0.90000;
	35494	 1	 0.0	 0.0	 0.0	 0.285	 1	    1.00000	    0.00000	 138.0	 1	    1.10000	    0.90000;
	35495	 1	 3.09	 0.0	 0.0	 4.464	 1	    1.00000	    0.00000	 138.0	 1	    1.10000	    0.90000;
	35496	 1	 7.22	 0.0	 0.0	 4.641	 1	    1.00000	    0.00000	 138.0	 1	    1.10000	    0.90000;
	35498	 1	 0.0	 0.0	 0.0	 2.812	 1	    1.00000	    0.00000	 138.0	 1	    1.10000	    0.90000;
	35499	 1	 6.56	 0.0	 0.0	 8.891	 1	    1.00000	    0.00000	 138.0	 1	    1.10000	    0.90000;
	35500	 1	 0.0	 0.0	 0.0	 -0.813	 1	    1.00000	    0.00000	 138.0	 1	    1.10000	    0.90000;
	35502	 1	 8.14	 2.31	 0.0	 0.0	 1	    1.00000	    0.00000	 138.0	 1	    1.10000	    0.90000;
	35503	 1	 0.0	 0.0	 0.0	 4.045	 1	    1.00000	    0.00000	 138.0	 1	    1.10000	    0.90000;
	35505	 1	 45.95	 0.0	 0.0	 16.975	 1	    1.00000	    0.00000	 230.0	 1	    1.10000	    0.90000;
	35506	 1	 0.0	 0.0	 0.0	 1.662	 1	    1.00000	    0.00000	 138.0	 1	    1.10000	    0.90000;
	35507	 1	 0.0	 0.0	 0.0	 -0.117	 1	    1.00000	    0.00000	 138.0	 1	    1.10000	    0.90000;
	35508	 1	 0.0	 0.0	 0.0	 2.669	 1	    1.00000	    0.00000	 138.0	 1	    1.10000	    0.90000;
	35509	 1	 114.6	 0.0	 0.0	 20.882	 1	    1.00000	    0.00000	 500.0	 1	    1.10000	    0.90000;
	35510	 1	 89.93	 0.0	 0.0	 19.079	 1	    1.00000	    0.00000	 138.0	 1	    1.10000	    0.90000;
	35511	 1	 15.64	 0.0	 0.0	 1.771	 1	    1.00000	    0.00000	 138.0	 1	    1.10000	    0.90000;
	35512	 1	 0.0	 0.0	 0.0	 2.643	 1	    1.00000	    0.00000	 138.0	 1	    1.10000	    0.90000;
	35513	 1	 2.685	 0.0	 0.0	 0.378	 1	    1.00000	    0.00000	 69.0	 1	    1.10000	    0.90000;
	35514	 1	 22.66	 0.0	 0.0	 4.492	 1	    1.00000	    0.00000	 138.0	 1	    1.10000	    0.90000;
	35515	 1	 44.96	 0.0	 0.0	 15.642	 1	    1.00000	    0.00000	 138.0	 1	    1.10000	    0.90000;
	35516	 1	 0.0	 0.0	 0.0	 4.273	 1	    1.00000	    0.00000	 138.0	 1	    1.10000	    0.90000;
	35517	 1	 19.26	 0.0	 0.0	 7.134	 1	    1.00000	    0.00000	 138.0	 1	    1.10000	    0.90000;
	35520	 1	 3.205	 0.0	 0.0	 0.961	 1	    1.00000	    0.00000	 69.0	 1	    1.10000	    0.90000;
	35522	 1	 0.0	 0.0	 0.0	 -1.227	 1	    1.00000	    0.00000	 138.0	 1	    1.10000	    0.90000;
	35523	 1	 0.0	 0.0	 0.0	 0.81	 1	    1.00000	    0.00000	 138.0	 1	    1.10000	    0.90000;
	35524	 1	 0.0	 0.0	 0.0	 -0.253	 1	    1.00000	    0.00000	 138.0	 1	    1.10000	    0.90000;
	35525	 1	 2.646	 0.0	 0.0	 0.833	 1	    1.00000	    0.00000	 69.0	 1	    1.10000	    0.90000;
	35526	 1	 0.0	 0.0	 0.0	 4.343	 1	    1.00000	    0.00000	 138.0	 1	    1.10000	    0.90000;
	35529	 1	 0.0	 0.0	 0.0	 1.127	 1	    1.00000	    0.00000	 138.0	 1	    1.10000	    0.90000;
	35530	 1	 0.61	 0.183	 0.0	 0.0	 1	    1.00000	    0.00000	 138.0	 1	    1.10000	    0.90000;
	35531	 1	 8.39	 0.0	 0.0	 0.864	 1	    1.00000	    0.00000	 138.0	 1	    1.10000	    0.90000;
	35532	 1	 0.0	 0.0	 0.0	 -10.289	 1	    1.00000	    0.00000	 138.0	 1	    1.10000	    0.90000;
	35533	 1	 40.18	 0.0	 0.0	 1.537	 1	    1.00000	    0.00000	 230.0	 1	    1.10000	    0.90000;
	35534	 1	 2.195	 0.0	 0.0	 0.55	 1	    1.00000	    0.00000	 69.0	 1	    1.10000	    0.90000;
	35536	 1	 3.24	 0.0	 0.0	 12.312	 1	    1.00000	    0.00000	 138.0	 1	    1.10000	    0.90000;
	35537	 1	 0.0	 0.0	 0.0	 7.2	 1	    1.00000	    0.00000	 138.0	 1	    1.10000	    0.90000;
	35538	 1	 20.66	 0.0	 0.0	 7.642	 1	    1.00000	    0.00000	 138.0	 1	    1.10000	    0.90000;
	35539	 1	 20.63	 6.189	 0.0	 0.0	 1	    1.00000	    0.00000	 138.0	 1	    1.10000	    0.90000;
	35540	 1	 7.4	 0.0	 0.0	 4.239	 1	    1.00000	    0.00000	 138.0	 1	    1.10000	    0.90000;
	35541	 1	 8.55	 1.05	 0.0	 0.0	 1	    1.00000	    0.00000	 138.0	 1	    1.10000	    0.90000;
	35543	 1	 33.99	 0.0	 0.0	 19.773	 1	    1.00000	    0.00000	 138.0	 1	    1.10000	    0.90000;
	35545	 1	 11.64	 0.0	 0.0	 1.724	 1	    1.00000	    0.00000	 138.0	 1	    1.10000	    0.90000;
	35546	 1	 18.44	 5.532	 0.0	 0.0	 1	    1.00000	    0.00000	 138.0	 1	    1.10000	    0.90000;
	35547	 1	 46.93	 0.0	 0.0	 15.213	 1	    1.00000	    0.00000	 500.0	 1	    1.10000	    0.90000;
	35548	 1	 8.21	 0.0	 0.0	 14.073	 1	    1.00000	    0.00000	 138.0	 1	    1.10000	    0.90000;
	35551	 1	 21.3	 0.0	 0.0	 0.349	 1	    1.00000	    0.00000	 500.0	 1	    1.10000	    0.90000;
	35553	 1	 30.29	 0.0	 0.0	 42.266	 1	    1.00000	    0.00000	 230.0	 1	    1.10000	    0.90000;
	35554	 1	 112.89	 0.0	 0.0	 63.9994507383	 1	    1.00000	    0.00000	 230.0	 1	    1.10000	    0.90000;
	35557	 1	 0.0	 0.0	 0.0	 4.717	 1	    1.00000	    0.00000	 138.0	 1	    1.10000	    0.90000;
	35559	 1	 36.34	 0.0	 0.0	 10.134	 1	    1.00000	    0.00000	 138.0	 1	    1.10000	    0.90000;
	35561	 1	 41.31	 0.0	 0.0	 17.231	 1	    1.00000	    0.00000	 138.0	 1	    1.10000	    0.90000;
	35562	 1	 0.0	 0.0	 0.0	 6.031	 1	    1.00000	    0.00000	 138.0	 1	    1.10000	    0.90000;
	35563	 1	 25.62	 0.0	 0.0	 7.784	 1	    1.00000	    0.00000	 138.0	 1	    1.10000	    0.90000;
	35564	 1	 0.0	 0.0	 0.0	 -8.221	 1	    1.00000	    0.00000	 138.0	 1	    1.10000	    0.90000;
	35567	 1	 3.65	 0.69	 0.0	 0.0	 1	    1.00000	    0.00000	 138.0	 1	    1.10000	    0.90000;
	35568	 1	 25.59	 0.0	 0.0	 17.509	 1	    1.00000	    0.00000	 138.0	 1	    1.10000	    0.90000;
	35571	 1	 7.57	 0.0	 0.0	 44.515	 1	    1.00000	    0.00000	 138.0	 1	    1.10000	    0.90000;
	35574	 1	 10.3	 0.0	 0.0	 0.275	 1	    1.00000	    0.00000	 69.0	 1	    1.10000	    0.90000;
	35575	 1	 2.744	 0.0	 0.0	 0.079	 1	    1.00000	    0.00000	 69.0	 1	    1.10000	    0.90000;
	35576	 1	 0.0	 0.0	 0.0	 -0.713	 1	    1.00000	    0.00000	 138.0	 1	    1.10000	    0.90000;
	35577	 1	 19.38	 0.0	 0.0	 7.107	 1	    1.00000	    0.00000	 138.0	 1	    1.10000	    0.90000;
	35578	 1	 3.469	 0.0	 0.0	 1.169	 1	    1.00000	    0.00000	 69.0	 1	    1.10000	    0.90000;
	35579	 1	 6.172	 0.0	 0.0	 3.236	 1	    1.00000	    0.00000	 69.0	 1	    1.10000	    0.90000;
	35581	 1	 2.164	 0.0	 0.0	 0.173	 1	    1.00000	    0.00000	 69.0	 1	    1.10000	    0.90000;
...
];

%% generator data
%	bus	Pg	Qg	Qmax	Qmin	Vg	mBase	status	Pmax	Pmin
mpc.gen = [
	35250	 700.0	 0.0	 378.6	 -378.6	 1.0	 100.0	 1	 725.0	 675.0;
	35250	 700.0	 0.0	 455.3	 -455.3	 1.0	 100.0	 1	 725.0	 675.0;
	35250	 700.0	 0.0	 470.3	 -470.3	 1.0	 100.0	 1	 725.0	 675.0;
	35251	 487.5	 127.2	 550.5	 -296.1	 1.0	 100.0	 1	 725.0	 250.0;
	35252	 502.75	 101.0	 437.2	 -235.2	 1.0	 100.0	 1	 705.5	 300.0;
	35252	 502.75	 101.0	 437.2	 -235.2	 1.0	 100.0	 1	 705.5	 300.0;
	35252	 502.75	 101.0	 437.2	 -235.2	 1.0	 100.0	 1	 705.5	 300.0;
	35252	 502.75	 101.0	 437.2	 -235.2	 1.0	 100.0	 1	 705.5	 300.0;
	35254	 301.85	 57.8	 250.2	 -134.6	 1.0	 100.0	 1	 403.7	 200.0;
	35254	 137.05	 24.35	 105.4	 -56.7	 1.0	 100.0	 1	 170.1	 104.0;
	35254	 137.05	 24.35	 105.4	 -56.7	 1.0	 100.0	 1	 170.1	 104.0;
	35254	 128.55	 24.35	 105.4	 -56.7	 1.0	 100.0	 1	 170.1	 87.0;
	35254	 124.55	 24.35	 105.4	 -56.7	 1.0	 100.0	 1	 170.1	 79.0;
	35255	 700.0	 136.35	 590.0	 -317.3	 1.0	 100.0	 1	 725.0	 675.0;
	35255	 171.0	 38.95	 168.6	 -90.7	 1.0	 100.0	 1	 272.0	 70.0;
	35255	 171.0	 38.95	 168.6	 -90.7	 1.0	 100.0	 1	 272.0	 70.0;
	35256	 189.6	 38.55	 166.8	 -89.7	 1.0	 100.0	 1	 269.2	 110.0;
	35256	 204.6	 42.85	 185.4	 -99.7	 1.0	 100.0	 1	 299.2	 110.0;
	35256	 73.0	 11.75	 50.2	 -26.7	 1.0	 100.0	 1	 80.0	 66.0;
	35257	 216.7	 37.0	 160.1	 -86.1	 1.0	 100.0	 1	 258.4	 175.0;
	35257	 200.5	 43.8	 189.6	 -102.0	 1.0	 100.0	 1	 306.0	 95.0;
	35264	 146.8615	 26.5	 114.7	 -61.7	 1.0	 100.0	 1	 185.0	 108.723;
	35264	 146.7855	 26.5	 114.7	 -61.7	 1.0	 100.0	 1	 185.0	 108.571;
	35264	 141.525	 26.5	 114.7	 -61.7	 1.0	 100.0	 1	 185.0	 98.05;
	35264	 141.525	 26.5	 114.7	 -61.7	 1.0	 100.0	 1	 185.0	 98.05;
	35264	 197.4	 21.3	 136.6	 -94.0	 1.0	 100.0	 1	 282.0	 112.8;
	35264	 197.4	 21.3	 136.6	 -94.0	 1.0	 100.0	 1	 282.0	 112.8;
	35265	 136.55	 13.85	 88.7	 -61.0	 1.0	 100.0	 1	 183.1	 90.0;
	35265	 136.55	 13.85	 88.7	 -61.0	 1.0	 100.0	 1	 183.1	 90.0;
	35265	 136.55	 13.85	 88.7	 -61.0	 1.0	 100.0	 1	 183.1	 90.0;
	35265	 212.55	 29.45	 188.9	 -130.0	 1.0	 100.0	 1	 390.1	 35.0;
	35272	 40.0	 6.8	 43.8	 -30.2	 1.0	 100.0	 1	 80.0	 0.0;
	35272	 40.0	 6.8	 43.8	 -30.2	 1.0	 100.0	 1	 80.0	 0.0;
	35275	 37.5	 10.05	 45.1	 -25.0	 1.0	 100.0	 1	 75.0	 0.0;
	35275	 37.5	 10.05	 45.1	 -25.0	 1.0	 100.0	 1	 75.0	 0.0;
	35275	 37.5	 10.05	 45.1	 -25.0	 1.0	 100.0	 1	 75.0	 0.0;
	35277	 33.75	 5.1	 32.7	 -22.5	 1.0	 100.0	 1	 67.5	 0.0;
	35277	 33.75	 5.1	 32.7	 -22.5	 1.0	 100.0	 1	 67.5	 0.0;
	35279	 37.1	 4.45	 27.3	 -18.4	 1.0	 100.0	 1	 55.2	 19.0;
	35279	 27.6	 5.5	 23.7	 -12.7	 1.0	 100.0	 1	 38.2	 17.0;
	35280	 26.95	 0.0	 23.0	 -23.0	 1.0	 100.0	 1	 53.9	 0.0;
	35281	 50.75	 3.85	 24.9	 -17.2	 1.0	 100.0	 1	 51.5	 50.0;
	35281	 50.75	 3.85	 24.9	 -17.2	 1.0	 100.0	 1	 51.5	 50.0;
	35285	 23.45	 4.2	 24.0	 -15.6	 1.0	 100.0	 1	 46.9	 0.0;
	35287	 9.15	 2.5	 9.533	 -4.533	 1.0	 100.0	 1	 13.633	 4.667;
	35288	 20.25	 0.0	 13.3	 -13.3	 1.0	 100.0	 1	 40.5	 0.0;
	35288	 20.25	 0.0	 13.3	 -13.3	 1.0	 100.0	 1	 40.5	 0.0;
	35294	 16.85	 0.0	 11.1	 -11.1	 1.0	 100.0	 1	 33.7	 0.0;
	35294	 16.85	 0.0	 11.1	 -11.1	 1.0	 100.0	 1	 33.7	 0.0;
	35294	 16.85	 0.0	 11.1	 -11.1	 1.0	 100.0	 1	 33.7	 0.0;
	35297	 14.6	 2.2	 14.1	 -9.7	 1.0	 100.0	 1	 29.2	 0.0;
	35297	 14.6	 2.2	 14.1	 -9.7	 1.0	 100.0	 1	 29.2	 0.0;
	35297	 14.6	 2.2	 14.1	 -9.7	 1.0	 100.0	 1	 29.2	 0.0;
	35298	 14.4	 2.15	 13.9	 -9.6	 1.0	 100.0	 1	 28.8	 0.0;
	35298	 14.4	 2.15	 13.9	 -9.6	 1.0	 100.0	 1	 28.8	 0.0;
	35298	 14.4	 2.15	 13.9	 -9.6	 1.0	 100.0	 1	 28.8	 0.0;
	35298	 14.4	 2.15	 13.9	 -9.6	 1.0	 100.0	 1	 28.8	 0.0;
	35300	 12.5	 3.2	 14.7	 -8.3	 1.0	 100.0	 1	 25.0	 0.0;
	35300	 12.5	 3.2	 14.7	 -8.3	 1.0	 100.0	 1	 25.0	 0.0;
	35300	 12.5	 3.2	 14.7	 -8.3	 1.0	 100.0	 1	 25.0	 0.0;
	35300	 12.5	 3.2	 14.7	 -8.3	 1.0	 100.0	 1	 25.0	 0.0;
	35301	 12.5	 0.0	 12.0	 -12.0	 1.0	 100.0	 1	 25.0	 0.0;
	35301	 12.75	 0.0	 12.3	 -12.3	 1.0	 100.0	 1	 25.5	 0.0;
	35302	 19.0	 3.6	 15.5	 -8.3	 1.0	 100.0	 1	 25.0	 13.0;
	35308	 582.5	 58.3	 373.9	 -257.3	 1.0	 100.0	 1	 725.0	 440.0;
	35311	 356.95	 42.05	 269.7	 -185.6	 1.0	 100.0	 1	 556.9	 157.0;
	35311	 354.6	 42.0	 269.4	 -185.4	 1.0	 100.0	 1	 556.2	 153.0;
	35311	 353.25	 42.0	 269.5	 -185.5	 1.0	 100.0	 1	 556.5	 150.0;
	35323	 126.6	 23.35	 101.1	 -54.4	 1.0	 100.0	 1	 163.2	 90.0;
	35323	 216.05	 21.3	 136.6	 -94.0	 1.0	 100.0	 1	 282.1	 150.0;
	35330	 5.325	 0.8125	 5.175	 -3.55	 1.0	 100.0	 1	 10.65	 0.0;
	35330	 5.325	 0.8125	 5.175	 -3.55	 1.0	 100.0	 1	 10.65	 0.0;
	35330	 5.325	 0.8125	 5.175	 -3.55	 1.0	 100.0	 1	 10.65	 0.0;
	35330	 5.325	 0.8125	 5.175	 -3.55	 1.0	 100.0	 1	 10.65	 0.0;
	35330	 5.325	 0.8125	 5.175	 -3.55	 1.0	 100.0	 1	 10.65	 0.0;
	35331	 75.3	 16.25	 70.4	 -37.9	 1.0	 100.0	 1	 113.6	 37.0;
	35334	 37.5	 8.6	 37.2	 -20.0	 1.0	 100.0	 1	 60.0	 15.0;
	35334	 37.5	 8.6	 37.2	 -20.0	 1.0	 100.0	 1	 60.0	 15.0;
	35335	 22.5	 3.4	 21.8	 -15.0	 1.0	 100.0	 1	 45.0	 0.0;
	35335	 22.5	 3.4	 21.8	 -15.0	 1.0	 100.0	 1	 45.0	 0.0;
	35335	 22.5	 3.4	 21.8	 -15.0	 1.0	 100.0	 1	 45.0	 0.0;
	35335	 22.5	 3.4	 21.8	 -15.0	 1.0	 100.0	 1	 45.0	 0.0;
	35335	 22.5	 3.4	 21.8	 -15.0	 1.0	 100.0	 1	 45.0	 0.0;
	35336	 21.2	 0.0	 18.1	 -18.1	 1.0	 100.0	 1	 42.4	 0.0;
	35336	 21.2	 0.0	 18.1	 -18.1	 1.0	 100.0	 1	 42.4	 0.0;
	35336	 22.3	 0.0	 19.0	 -19.0	 1.0	 100.0	 1	 44.6	 0.0;
	35336	 22.3	 0.0	 19.0	 -19.0	 1.0	 100.0	 1	 44.6	 0.0;
	35336	 22.3	 0.0	 19.0	 -19.0	 1.0	 100.0	 1	 44.6	 0.0;
	35337	 27.8	 4.65	 20.2	 -10.9	 1.0	 100.0	 1	 32.6	 23.0;
	35343	 512.5	 108.7	 697.4	 -480.0	 1.0	 100.0	 1	 725.0	 300.0;
	35345	 147.75	 26.6	 115.0	 -61.8	 1.0	 100.0	 1	 185.5	 110.0;
	35345	 147.75	 26.6	 115.0	 -61.8	 1.0	 100.0	 1	 185.5	 110.0;
	35345	 147.75	 26.6	 115.0	 -61.8	 1.0	 100.0	 1	 185.5	 110.0;
	35345	 147.75	 26.6	 115.0	 -61.8	 1.0	 100.0	 1	 185.5	 110.0;
	35345	 356.65	 78.5	 339.8	 -182.8	 1.0	 100.0	 1	 548.3	 165.0;
	35347	 431.85	 38.8	 248.8	 -171.2	 1.0	 100.0	 1	 513.7	 350.0;
	35348	 135.45	 5.5	 155.0	 -144.0	 1.0	 100.0	 1	 270.0	 0.9;
	35348	 135.45	 5.5	 155.0	 -144.0	 1.0	 100.0	 1	 270.0	 0.9;
	35348	 155.7	 -77.5	 56.0	 -211.0	 1.0	 100.0	 1	 310.5	 0.9;
	35349	 127.5	 28.6	 123.9	 -66.7	 1.0	 100.0	 1	 200.0	 55.0;
	35349	 127.5	 28.6	 123.9	 -66.7	 1.0	 100.0	 1	 200.0	 55.0;
	35350	 149.75	 13.95	 89.4	 -61.5	 1.0	 100.0	 1	 184.5	 115.0;
	35350	 149.75	 13.95	 89.4	 -61.5	 1.0	 100.0	 1	 184.5	 115.0;
	35350	 149.75	 13.95	 89.4	 -61.5	 1.0	 100.0	 1	 184.5	 115.0;
	35351	 154.2	 13.5	 86.8	 -59.8	 1.0	 100.0	 1	 179.3	 129.1;
	35351	 154.2	 13.5	 86.8	 -59.8	 1.0	 100.0	 1	 179.3	 129.1;
	35351	 154.2	 13.5	 86.8	 -59.8	 1.0	 100.0	 1	 179.3	 129.1;
	35352	 144.5	 25.6	 110.9	 -59.7	 1.0	 100.0	 1	 179.0	 110.0;
	35352	 144.5	 25.6	 110.9	 -59.7	 1.0	 100.0	 1	 179.0	 110.0;
	35352	 144.5	 25.6	 110.9	 -59.7	 1.0	 100.0	 1	 179.0	 110.0;
	35354	 133.3	 25.85	 110.6	 -58.9	 1.0	 100.0	 1	 176.6	 90.0;
	35354	 133.3	 25.85	 110.6	 -58.9	 1.0	 100.0	 1	 176.6	 90.0;
	35355	 135.8	 25.85	 110.6	 -58.9	 1.0	 100.0	 1	 176.6	 95.0;
	35355	 135.8	 25.85	 110.6	 -58.9	 1.0	 100.0	 1	 176.6	 95.0;
	35356	 85.65	 14.5	 62.8	 -33.8	 1.0	 100.0	 1	 101.3	 70.0;
	35357	 146.15	 12.15	 78.0	 -53.7	 1.0	 100.0	 1	 161.0	 131.3;
	35357	 146.15	 12.15	 78.0	 -53.7	 1.0	 100.0	 1	 161.0	 131.3;
	35357	 146.15	 12.15	 78.0	 -53.7	 1.0	 100.0	 1	 161.0	 131.3;
	35360	 68.25	 11.95	 51.7	 -27.8	 1.0	 100.0	 1	 83.5	 53.0;
	35360	 68.25	 11.95	 51.7	 -27.8	 1.0	 100.0	 1	 83.5	 53.0;
	35360	 68.25	 11.95	 51.7	 -27.8	 1.0	 100.0	 1	 83.5	 53.0;
	35362	 50.6	 5.4	 34.5	 -23.7	 1.0	 100.0	 1	 71.2	 30.0;
	35366	 35.5	 6.7	 29.1	 -15.7	 1.0	 100.0	 1	 47.0	 24.0;
	35366	 35.5	 6.7	 29.1	 -15.7	 1.0	 100.0	 1	 47.0	 24.0;
	35366	 35.5	 6.7	 29.1	 -15.7	 1.0	 100.0	 1	 47.0	 24.0;
	35368	 31.45	 3.15	 20.3	 -14.0	 1.0	 100.0	 1	 41.9	 21.0;
	35370	 10.775	 2.6	 10.9	 -5.7	 1.0	 100.0	 1	 17.05	 4.5;
	35370	 10.775	 2.6	 10.9	 -5.7	 1.0	 100.0	 1	 17.05	 4.5;
	35387	 125.8	 13.1	 84.0	 -57.8	 1.0	 100.0	 1	 173.4	 78.2;
	35387	 125.8	 13.1	 84.0	 -57.8	 1.0	 100.0	 1	 173.4	 78.2;
	35396	 8.3	 3.467	 12.467	 -5.533	 1.0	 100.0	 1	 16.6	 0.0;
	35396	 8.3	 3.467	 12.467	 -5.533	 1.0	 100.0	 1	 16.6	 0.0;
	35396	 8.3	 3.467	 12.467	 -5.533	 1.0	 100.0	 1	 16.6	 0.0;
	35397	 22.5	 3.4	 21.8	 -15.0	 1.0	 100.0	 1	 45.0	 0.0;
	35398	 22.5	 3.4	 21.8	 -15.0	 1.0	 100.0	 1	 45.0	 0.0;
	35398	 22.5	 3.4	 21.8	 -15.0	 1.0	 100.0	 1	 45.0	 0.0;
	35398	 22.5	 3.4	 21.8	 -15.0	 1.0	 100.0	 1	 45.0	 0.0;
	35399	 20.7	 3.15	 20.1	 -13.8	 1.0	 100.0	 1	 41.4	 0.0;
	35399	 26.1	 3.95	 25.3	 -17.4	 1.0	 100.0	 1	 52.2	 0.0;
	35401	 19.95	 0.0	 13.1	 -13.1	 1.0	 100.0	 1	 39.9	 0.0;
	35401	 19.95	 0.0	 13.1	 -13.1	 1.0	 100.0	 1	 39.9	 0.0;
	35401	 19.95	 0.0	 13.1	 -13.1	 1.0	 100.0	 1	 39.9	 0.0;
	35401	 19.95	 0.0	 13.1	 -13.1	 1.0	 100.0	 1	 39.9	 0.0;
	35403	 6.0	 6.0	 16.0	 -4.0	 1.0	 100.0	 1	 12.0	 0.0;
	35403	 6.0	 6.0	 16.0	 -4.0	 1.0	 100.0	 1	 12.0	 0.0;
	35403	 6.0	 6.0	 16.0	 -4.0	 1.0	 100.0	 1	 12.0	 0.0;
	35406	 8.425	 1.925	 9.45	 -5.6	 1.0	 100.0	 1	 16.85	 0.0;
	35406	 8.425	 1.925	 9.45	 -5.6	 1.0	 100.0	 1	 16.85	 0.0;
	35408	 16.65	 2.5	 16.1	 -11.1	 1.0	 100.0	 1	 33.3	 0.0;
	35408	 16.65	 2.5	 16.1	 -11.1	 1.0	 100.0	 1	 33.3	 0.0;
	35408	 16.65	 2.5	 16.1	 -11.1	 1.0	 100.0	 1	 33.3	 0.0;
	35409	 16.2	 2.45	 15.7	 -10.8	 1.0	 100.0	 1	 32.4	 0.0;
	35409	 16.7	 2.55	 16.2	 -11.1	 1.0	 100.0	 1	 33.4	 0.0;
	35409	 17.3	 2.65	 16.8	 -11.5	 1.0	 100.0	 1	 34.6	 0.0;
	35409	 17.3	 2.65	 16.8	 -11.5	 1.0	 100.0	 1	 34.6	 0.0;
	35410	 15.75	 2.4	 15.3	 -10.5	 1.0	 100.0	 1	 31.5	 0.0;
	35410	 18.25	 2.75	 17.7	 -12.2	 1.0	 100.0	 1	 36.5	 0.0;
	35410	 20.7	 3.15	 20.1	 -13.8	 1.0	 100.0	 1	 41.4	 0.0;
	35410	 20.7	 3.15	 20.1	 -13.8	 1.0	 100.0	 1	 41.4	 0.0;
	35412	 14.8	 0.0	 9.7	 -9.7	 1.0	 100.0	 1	 29.6	 0.0;
	35412	 19.0	 0.0	 12.5	 -12.5	 1.0	 100.0	 1	 38.0	 0.0;
	35412	 19.15	 0.0	 12.6	 -12.6	 1.0	 100.0	 1	 38.3	 0.0;
	35413	 14.4	 2.15	 13.9	 -9.6	 1.0	 100.0	 1	 28.8	 0.0;
	35415	 14.0	 6.35	 22.0	 -9.3	 1.0	 100.0	 1	 28.0	 0.0;
	35416	 2.349	 0.0	 10.7	 -10.7	 1.0	 100.0	 1	 4.698	 0.0;
	35417	 12.5	 3.6	 15.5	 -8.3	 1.0	 100.0	 1	 25.0	 0.0;
	35417	 12.5	 6.85	 22.0	 -8.3	 1.0	 100.0	 1	 25.0	 0.0;
	35417	 12.5	 3.6	 15.5	 -8.3	 1.0	 100.0	 1	 25.0	 0.0;
	35417	 14.35	 4.1	 17.8	 -9.6	 1.0	 100.0	 1	 28.7	 0.0;
	35419	 12.15	 1.85	 11.8	 -8.1	 1.0	 100.0	 1	 24.3	 0.0;
	35419	 12.15	 1.85	 11.8	 -8.1	 1.0	 100.0	 1	 24.3	 0.0;
	35419	 13.7	 2.1	 13.3	 -9.1	 1.0	 100.0	 1	 27.4	 0.0;
	35419	 13.95	 2.1	 13.5	 -9.3	 1.0	 100.0	 1	 27.9	 0.0;
	35420	 5.75	 2.4	 8.65	 -3.85	 1.0	 100.0	 1	 11.5	 0.0;
	35420	 5.75	 2.4	 8.65	 -3.85	 1.0	 100.0	 1	 11.5	 0.0;
	39875	 500.0	 61.3	 393.2	 -270.6	 1.0	 100.0	 1	 725.0	 275.0;
	39877	 369.75	 0.0	 223.3	 -223.3	 1.0	 100.0	 1	 679.5	 60.0;
	39878	 19.703	 22.65	 145.3	 -100.0	 1.0	 100.0	 1	 39.406	 0.0;
	39880	 13.6	 15.1	 96.9	 -66.7	 1.0	 100.0	 1	 27.2	 0.0;
	39881	 10.5	 15.05	 96.7	 -66.6	 1.0	 100.0	 1	 21.0	 0.0;
	39883	 23.2485	 13.2	 84.7	 -58.3	 1.0	 100.0	 1	 46.497	 0.0;
	39885	 28.0	 0.0	 67.5	 -67.5	 1.0	 100.0	 1	 56.0	 0.0;
	39886	 17.435	 0.0	 66.1	 -66.1	 1.0	 100.0	 1	 34.87	 0.0;
	39887	 1.342	 0.0	 66.1	 -66.1	 1.0	 100.0	 1	 2.684	 0.0;
	39888	 10.73	 0.0	 66.1	 -66.1	 1.0	 100.0	 1	 21.46	 0.0;
	39889	 12.35	 0.25	 66.6	 -66.1	 1.0	 100.0	 1	 24.7	 0.0;
	39894	 20.5315	 0.0	 49.6	 -49.6	 1.0	 100.0	 1	 41.063	 0.0;
	39897	 8.74	 0.0	 43.7	 -43.7	 1.0	 100.0	 1	 17.48	 0.0;
	39898	 9.207	 7.45	 47.9	 -33.0	 1.0	 100.0	 1	 18.414	 0.0;
	39899	 38.0	 0.0	 43.2	 -43.2	 1.0	 100.0	 1	 76.0	 0.0;
	39905	 36.96	 0.0	 31.6	 -31.6	 1.0	 100.0	 1	 73.92	 0.0;
	39906	 146.0	 16.0	 102.7	 -70.7	 1.0	 100.0	 1	 212.0	 80.0;
	39908	 42.4	 5.95	 38.2	 -26.3	 1.0	 100.0	 1	 78.8	 6.0;
	39910	 24.6375	 0.0	 29.6	 -29.6	 1.0	 100.0	 1	 49.275	 0.0;
	39917	 17.8715	 0.0	 23.1	 -23.1	 1.0	 100.0	 1	 35.743	 0.0;
	39917	 29.9625	 0.0	 29.6	 -29.6	 1.0	 100.0	 1	 59.925	 0.0;
	39917	 24.217	 0.0	 54.2	 -54.2	 1.0	 100.0	 1	 48.434	 0.0;
	39926	 185.7	 20.7	 132.9	 -91.5	 1.0	 100.0	 1	 274.5	 96.9;
	39931	 4.13	 0.0	 13.8	 -13.8	 1.0	 100.0	 1	 8.26	 0.0;
	39931	 7.5	 13.95	 89.6	 -61.7	 1.0	 100.0	 1	 15.0	 0.0;
...
];

%% generator cost data
%	2	startup	shutdown	n	c(n-1)	...	c0
mpc.gencost = [
	2	 0.0	 0.0	 3	   0.000000	   1.921000	 -49.500000;
	2	 0.0	 0.0	 3	   0.000000	   1.672000	 -49.500000;
	2	 0.0	 0.0	 3	   0.000000	   1.990000	 -49.500000;
	2	 0.0	 0.0	 3	   0.000000	   1.996000	 -24.980000;
	2	 0.0	 0.0	 3	   0.001729	   9.812000	   0.000000;
	2	 0.0	 0.0	 3	   0.001729	  10.940000	   0.000000;
	2	 0.0	 0.0	 3	   0.001729	  11.070000	   0.000000;
	2	 0.0	 0.0	 3	   0.001729	  10.790000	   0.000000;
	2	 0.0	 0.0	 3	   0.000000	  12.740000	 -330.900000;
	2	 0.0	 0.0	 3	   0.000000	  21.340000	 -640.400000;
	2	 0.0	 0.0	 3	   0.000000	  21.270000	 -640.400000;
	2	 0.0	 0.0	 3	   0.032260	  11.520000	  -4.868000;
	2	 0.0	 0.0	 3	   0.032280	  11.900000	  -4.254000;
	2	 0.0	 0.0	 3	   0.000000	  11.880000	 -745.000000;
	2	 0.0	 0.0	 3	   0.004972	  10.610000	   0.000000;
	2	 0.0	 0.0	 3	   0.004972	  11.500000	   0.000000;
	2	 0.0	 0.0	 3	   0.000000	  12.720000	 -190.900000;
	2	 0.0	 0.0	 3	   0.000000	  14.140000	 -201.300000;
	2	 0.0	 0.0	 3	   0.000000	  21.750000	 -39.100000;
	2	 0.0	 0.0	 3	   0.026260	  14.270000	 -10.450000;
	2	 0.0	 0.0	 3	   0.026380	  14.130000	  -4.156000;
	2	 0.0	 0.0	 3	   0.032230	  11.670000	  -6.705000;
	2	 0.0	 0.0	 3	   0.032230	  11.890000	  -6.687000;
	2	 0.0	 0.0	 3	   0.032270	  12.010000	  -5.586000;
	2	 0.0	 0.0	 3	   0.032270	  11.900000	  -5.586000;
	2	 0.0	 0.0	 3	   0.026360	  13.660000	  -4.796000;
	2	 0.0	 0.0	 3	   0.026360	  13.210000	  -4.796000;
	2	 0.0	 0.0	 3	   0.032280	  10.880000	  -4.937000;
	2	 0.0	 0.0	 3	   0.032280	  11.120000	  -4.937000;
	2	 0.0	 0.0	 3	   0.032280	  11.300000	  -4.937000;
	2	 0.0	 0.0	 3	   0.009369	  16.700000	  -1.130000;
	2	 0.0	 0.0	 3	   0.000000	   4.464000	   0.000000;
	2	 0.0	 0.0	 3	   0.000000	   4.237000	   0.000000;
	2	 0.0	 0.0	 3	   0.000000	   4.049000	   0.000000;
	2	 0.0	 0.0	 3	   0.000000	   4.036000	   0.000000;
	2	 0.0	 0.0	 3	   0.000000	   4.174000	   0.000000;
	2	 0.0	 0.0	 3	   0.000000	   3.943000	   0.000000;
	2	 0.0	 0.0	 3	   0.000000	   4.771000	   0.000000;
	2	 0.0	 0.0	 3	   0.000000	  22.480000	 -77.060000;
	2	 0.0	 0.0	 3	   0.000000	  21.650000	 -42.850000;
	2	 0.0	 0.0	 3	   0.000000	   3.792000	   0.000000;
	2	 0.0	 0.0	 3	   0.000000	   0.005882	   0.000000;
	2	 0.0	 0.0	 3	   0.000000	   0.005882	   0.000000;
	2	 0.0	 0.0	 3	   0.000000	   3.315000	   0.000000;
	2	 0.0	 0.0	 3	   0.000000	   1.940000	  -7.176000;
	2	 0.0	 0.0	 3	   0.000000	   3.633000	   0.000000;
	2	 0.0	 0.0	 3	   0.000000	   3.352000	   0.000000;
	2	 0.0	 0.0	 3	   0.000000	   3.259000	   0.000000;
	2	 0.0	 0.0	 3	   0.000000	   3.514000	   0.000000;
	2	 0.0	 0.0	 3	   0.000000	   3.766000	   0.000000;
	2	 0.0	 0.0	 3	   0.000000	   3.325000	   0.000000;
	2	 0.0	 0.0	 3	   0.000000	   3.165000	   0.000000;
	2	 0.0	 0.0	 3	   0.000000	   3.602000	   0.000000;
	2	 0.0	 0.0	 3	   0.000000	   3.454000	   0.000000;
	2	 0.0	 0.0	 3	   0.000000	   3.440000	   0.000000;
	2	 0.0	 0.0	 3	   0.000000	   3.074000	   0.000000;
	2	 0.0	 0.0	 3	   0.000000	   3.669000	   0.000000;
	2	 0.0	 0.0	 3	   0.000000	   3.492000	   0.000000;
	2	 0.0	 0.0	 3	   0.000000	   3.467000	   0.000000;
	2	 0.0	 0.0	 3	   0.000000	   3.501000	   0.000000;
	2	 0.0	 0.0	 3	   0.000000	   3.042000	   0.000000;
	2	 0.0	 0.0	 3	   0.000000	   3.318000	   0.000000;
	2	 0.0	 0.0	 3	   0.000000	   3.759000	   0.000000;
	2	 0.0	 0.0	 3	   0.000000	  17.400000	  -9.875000;
	2	 0.0	 0.0	 3	   0.000000	  13.510000	 -631.700000;
	2	 0.0	 0.0	 3	   0.001891	  11.350000	   0.000000;
	2	 0.0	 0.0	 3	   0.001904	  10.240000	   0.000000;
	2	 0.0	 0.0	 3	   0.001891	  10.530000	   0.000000;
	2	 0.0	 0.0	 3	   0.000000	  12.620000	 -140.300000;
	2	 0.0	 0.0	 3	   0.000000	  14.550000	 -235.800000;
	2	 0.0	 0.0	 3	   0.000000	   3.166000	   0.000000;
	2	 0.0	 0.0	 3	   0.000000	   2.815000	   0.000000;
	2	 0.0	 0.0	 3	   0.000000	   3.452000	   0.000000;
	2	 0.0	 0.0	 3	   0.000000	   3.510000	   0.000000;
	2	 0.0	 0.0	 3	   0.000000	   2.955000	   0.000000;
	2	 0.0	 0.0	 3	   0.000000	  13.210000	 -74.490000;
	2	 0.0	 0.0	 3	   0.000000	  19.920000	 -37.780000;
	2	 0.0	 0.0	 3	   0.000000	  17.730000	 -37.780000;
	2	 0.0	 0.0	 3	   0.000000	   3.803000	   0.000000;
	2	 0.0	 0.0	 3	   0.000000	   3.987000	   0.000000;
	2	 0.0	 0.0	 3	   0.000000	   3.501000	   0.000000;
	2	 0.0	 0.0	 3	   0.000000	   3.508000	   0.000000;
	2	 0.0	 0.0	 3	   0.000000	   3.538000	   0.000000;
	2	 0.0	 0.0	 3	   0.000000	   3.469000	   0.000000;
	2	 0.0	 0.0	 3	   0.000000	   3.488000	   0.000000;
	2	 0.0	 0.0	 3	   0.000000	   3.551000	   0.000000;
	2	 0.0	 0.0	 3	   0.000000	   3.795000	   0.000000;
	2	 0.0	 0.0	 3	   0.000000	   3.409000	   0.000000;
	2	 0.0	 0.0	 3	   0.000000	  17.700000	 -20.840000;
	2	 0.0	 0.0	 3	   0.000000	   1.899000	 -27.730000;
	2	 0.0	 0.0	 3	   0.032230	  11.920000	  -6.842000;
	2	 0.0	 0.0	 3	   0.032230	  11.710000	  -6.842000;
	2	 0.0	 0.0	 3	   0.032230	  12.290000	  -6.842000;
	2	 0.0	 0.0	 3	   0.032230	  11.470000	  -6.842000;
	2	 0.0	 0.0	 3	   0.001961	  11.370000	   0.000000;
	2	 0.0	 0.0	 3	   0.000000	  13.000000	 -438.800000;
	2	 0.0	 0.0	 3	   0.026400	  14.860000	  -1.823000;
	2	 0.0	 0.0	 3	   0.026400	  13.500000	  -1.823000;
	2	 0.0	 0.0	 3	   0.026400	  13.160000	  -2.093000;
	2	 0.0	 0.0	 3	   0.000000	  12.590000	 -111.400000;
	2	 0.0	 0.0	 3	   0.000000	  12.870000	 -111.400000;
	2	 0.0	 0.0	 3	   0.000000	  22.240000	 -763.900000;
	2	 0.0	 0.0	 3	   0.000000	  22.840000	 -763.900000;
	2	 0.0	 0.0	 3	   0.000000	  21.580000	 -763.900000;
	2	 0.0	 0.0	 3	   0.000000	  22.540000	 -802.300000;
	2	 0.0	 0.0	 3	   0.000000	  21.430000	 -802.300000;
	2	 0.0	 0.0	 3	   0.000000	  20.930000	 -802.300000;
	2	 0.0	 0.0	 3	   0.000000	  20.630000	 -711.700000;
	2	 0.0	 0.0	 3	   0.000000	  20.990000	 -711.700000;
	2	 0.0	 0.0	 3	   0.000000	  21.800000	 -711.700000;
	2	 0.0	 0.0	 3	   0.032270	  11.620000	  -5.023000;
	2	 0.0	 0.0	 3	   0.032270	  12.490000	  -5.023000;
	2	 0.0	 0.0	 3	   0.032250	  12.790000	  -5.468000;
	2	 0.0	 0.0	 3	   0.032250	  11.280000	  -5.468000;
	2	 0.0	 0.0	 3	   0.000000	  20.720000	 -54.680000;
	2	 0.0	 0.0	 3	   0.000000	  21.630000	 -712.500000;
	2	 0.0	 0.0	 3	   0.000000	  21.770000	 -712.500000;
	2	 0.0	 0.0	 3	   0.000000	  21.620000	 -712.500000;
	2	 0.0	 0.0	 3	   0.000000	  22.050000	 -34.910000;
	2	 0.0	 0.0	 3	   0.000000	  22.020000	 -34.910000;
	2	 0.0	 0.0	 3	   0.000000	  22.260000	 -34.910000;
	2	 0.0	 0.0	 3	   0.000000	  20.350000	 -19.350000;
	2	 0.0	 0.0	 3	   0.000000	  18.080000	 -34.480000;
	2	 0.0	 0.0	 3	   0.000000	  19.550000	 -34.480000;
	2	 0.0	 0.0	 3	   0.000000	  18.350000	 -34.480000;
	2	 0.0	 0.0	 3	   0.000000	  19.350000	 -27.070000;
	2	 0.0	 0.0	 3	   0.000000	  18.720000	  -6.425000;
	2	 0.0	 0.0	 3	   0.000000	  19.190000	  -6.425000;
	2	 0.0	 0.0	 3	   0.032290	  11.480000	  -4.176000;
	2	 0.0	 0.0	 3	   0.032290	  12.240000	  -4.176000;
	2	 0.0	 0.0	 3	   0.000000	   3.255000	   0.000000;
	2	 0.0	 0.0	 3	   0.000000	   3.577000	   0.000000;
	2	 0.0	 0.0	 3	   0.000000	   3.246000	   0.000000;
	2	 0.0	 0.0	 3	   0.000000	   3.767000	   0.000000;
	2	 0.0	 0.0	 3	   0.000000	   3.498000	   0.000000;
	2	 0.0	 0.0	 3	   0.000000	   3.772000	   0.000000;
	2	 0.0	 0.0	 3	   0.000000	   3.840000	   0.000000;
	2	 0.0	 0.0	 3	   0.000000	   3.973000	   0.000000;
	2	 0.0	 0.0	 3	   0.000000	   3.471000	   0.000000;
	2	 0.0	 0.0	 3	   0.000000	   3.924000	   0.000000;
	2	 0.0	 0.0	 3	   0.000000	   3.439000	   0.000000;
	2	 0.0	 0.0	 3	   0.000000	   3.493000	   0.000000;
	2	 0.0	 0.0	 3	   0.000000	   3.874000	   0.000000;
	2	 0.0	 0.0	 3	   0.000000	   3.049000	   0.000000;
	2	 0.0	 0.0	 3	   0.000000	   3.148000	   0.000000;
	2	 0.0	 0.0	 3	   0.000000	   3.287000	   0.000000;
	2	 0.0	 0.0	 3	   0.000000	   3.598000	   0.000000;
	2	 0.0	 0.0	 3	   0.000000	   2.892000	   0.000000;
	2	 0.0	 0.0	 3	   0.000000	   3.456000	   0.000000;
	2	 0.0	 0.0	 3	   0.000000	   3.660000	   0.000000;
	2	 0.0	 0.0	 3	   0.000000	   3.795000	   0.000000;
	2	 0.0	 0.0	 3	   0.000000	   3.219000	   0.000000;
	2	 0.0	 0.0	 3	   0.000000	   3.141000	   0.000000;
	2	 0.0	 0.0	 3	   0.000000	   3.668000	   0.000000;
	2	 0.0	 0.0	 3	   0.000000	   3.687000	   0.000000;
	2	 0.0	 0.0	 3	   0.000000	   3.175000	   0.000000;
	2	 0.0	 0.0	 3	   0.000000	   3.489000	   0.000000;
	2	 0.0	 0.0	 3	   0.000000	   3.858000	   0.000000;
	2	 0.0	 0.0	 3	   0.000000	   3.679000	   0.000000;
	2	 0.0	 0.0	 3	   0.000000	   3.154000	   0.000000;
	2	 0.0	 0.0	 3	   0.000000	   3.241000	   0.000000;
	2	 0.0	 0.0	 3	   0.000000	   3.900000	   0.000000;
	2	 0.0	 0.0	 3	   0.000000	   3.425000	   0.000000;
	2	 0.0	 0.0	 3	   0.000000	   3.210000	   0.000000;
	2	 0.0	 0.0	 3	   0.000000	   0.002042	   0.000000;
	2	 0.0	 0.0	 3	   0.000000	   3.717000	   0.000000;
	2	 0.0	 0.0	 3	   0.000000	   3.391000	   0.000000;
	2	 0.0	 0.0	 3	   0.000000	   3.338000	   0.000000;
	2	 0.0	 0.0	 3	   0.000000	   3.636000	   0.000000;
	2	 0.0	 0.0	 3	   0.000000	   3.303000	   0.000000;
	2	 0.0	 0.0	 3	   0.000000	   3.112000	   0.000000;
	2	 0.0	 0.0	 3	   0.000000	   3.631000	   0.000000;
	2	 0.0	 0.0	 3	   0.000000	   3.147000	   0.000000;
	2	 0.0	 0.0	 3	   0.000000	   3.412000	   0.000000;
	2	 0.0	 0.0	 3	   0.000000	   3.119000	   0.000000;
	2	 0.0	 0.0	 3	   0.001763	  11.260000	   0.000000;
	2	 0.0	 0.0	 3	   0.000000	   1.957000	 -13.270000;
	2	 0.0	 0.0	 3	   0.000000	   0.004532	   0.000000;
	2	 0.0	 0.0	 3	   0.000000	   0.003128	   0.000000;
	2	 0.0	 0.0	 3	   0.000000	   0.002415	   0.000000;
	2	 0.0	 0.0	 3	   0.000000	   0.005347	   0.000000;
	2	 0.0	 0.0	 3	   0.000000	   0.006440	   0.000000;
	2	 0.0	 0.0	 3	   0.000000	   0.004010	   0.000000;
	2	 0.0	 0.0	 3	   0.000000	   0.003467	   0.000000;
	2	 0.0	 0.0	 3	   0.000000	   0.002468	   0.000000;
	2	 0.0	 0.0	 3	   0.000000	   0.002841	   0.000000;
	2	 0.0	 0.0	 3	   0.000000	   0.004722	   0.000000;
	2	 0.0	 0.0	 3	   0.000000	   0.002010	   0.000000;
	2	 0.0	 0.0	 3	   0.000000	   0.002118	   0.000000;
	2	 0.0	 0.0	 3	   0.000000	   0.008740	   0.000000;
	2	 0.0	 0.0	 3	   0.000000	   0.008501	   0.000000;
	2	 0.0	 0.0	 3	   0.000000	  14.550000	 -143.800000;
	2	 0.0	 0.0	 3	   0.000000	  22.400000	 -12.390000;
	2	 0.0	 0.0	 3	   0.000000	   0.005667	   0.000000;
	2	 0.0	 0.0	 3	   0.000000	   0.004110	   0.000000;
	2	 0.0	 0.0	 3	   0.000000	   0.006891	   0.000000;
	2	 0.0	 0.0	 3	   0.000000	   0.005570	   0.000000;
	2	 0.0	 0.0	 3	   0.000000	  12.700000	 -179.000000;
	2	 0.0	 0.0	 3	   0.000000	   0.000867	   0.000000;
	2	 0.0	 0.0	 3	   0.000000	   0.001725	   0.000000;
...
];

%% branch data
%	fbus	tbus	r	x	b	rateA	rateB	rateC	ratio	angle	status	angmin	angmax
mpc.branch = [
	35250	 36372	 0.000183924	 0.00300313	 0.131209	 1406.0	 1406.0	 1406.0	 0.0	 0.0	 1	 -18.9296958964	 18.9296958964;
	35251	 35650	 0.00088641	 0.0119996	 1.09115	 2385.0	 2385.0	 2385.0	 0.0	 0.0	 1	 -18.9296958964	 18.9296958964;
	35252	 35934	 0.000169	 0.002758	 0.120496	 2441.0	 2441.0	 2441.0	 0.0	 0.0	 1	 -18.9296958964	 18.9296958964;
	35252	 35934	 0.000169	 0.002758	 0.120496	 2441.0	 2441.0	 2441.0	 0.0	 0.0	 1	 -18.9296958964	 18.9296958964;
	35252	 35953	 0.000557	 0.007121	 0.298118	 2444.0	 2444.0	 2444.0	 0.0	 0.0	 1	 -18.9296958964	 18.9296958964;
	35254	 35441	 0.000498829	 0.0060975	 0.436053	 1725.0	 1725.0	 1725.0	 0.0	 0.0	 1	 -18.9296958964	 18.9296958964;
	35254	 36253	 8.54675e-05	 0.00158444	 0.146562	 2840.0	 2840.0	 2840.0	 0.0	 0.0	 1	 -18.9296958964	 18.9296958964;
	35254	 36254	 0.000184723	 0.00243486	 0.0958469	 1354.4	 1354.4	 1354.4	 0.0	 0.0	 1	 -18.9296958964	 18.9296958964;
	35255	 35509	 0.00129536	 0.0158753	 1.13968	 1725.0	 1725.0	 1725.0	 0.0	 0.0	 1	 -18.9296958964	 18.9296958964;
	35255	 36439	 0.000144148	 0.00209213	 0.0834739	 1258.0	 1258.0	 1258.0	 0.0	 0.0	 1	 -18.9296958964	 18.9296958964;
	35259	 36367	 0.000246122	 0.0013363	 0.0115978	 462.0	 462.0	 462.0	 0.0	 0.0	 1	 -18.9296958964	 18.9296958964;
	35259	 76211	 0.000266124	 0.00267741	 0.027643	 708.0	 708.0	 708.0	 0.0	 0.0	 1	 -18.9296958964	 18.9296958964;
	35263	 35512	 0.00277227	 0.0247154	 0.0104424	 351.0	 351.0	 351.0	 0.0	 0.0	 1	 -18.9296958964	 18.9296958964;
	35263	 35515	 0.00793092	 0.0316501	 0.0055725	 203.2	 203.2	 203.2	 0.0	 0.0	 1	 -18.9296958964	 18.9296958964;
	35263	 35529	 0.00184376	 0.0224675	 0.00742698	 386.0	 386.0	 386.0	 0.0	 0.0	 1	 -18.9296958964	 18.9296958964;
	35263	 36493	 0.0104813	 0.0366768	 0.0121555	 284.0	 284.0	 284.0	 0.0	 0.0	 1	 -18.9296958964	 18.9296958964;
	35263	 36501	 0.0325783	 0.0828788	 0.0209772	 255.0	 255.0	 255.0	 0.0	 0.0	 1	 -18.9296958964	 18.9296958964;
	35264	 75682	 0.000359821	 0.0052585	 0.0201474	 1004.6	 1004.6	 1004.6	 0.0	 0.0	 1	 -18.9296958964	 18.9296958964;
	35265	 35547	 0.000499488	 0.00703449	 0.298637	 1346.1	 1346.1	 1346.1	 0.0	 0.0	 1	 -18.9296958964	 18.9296958964;
	35268	 38878	 0.000462789	 0.00881356	 0.664292	 2354.0	 2354.0	 2354.0	 0.0	 0.0	 1	 -18.9296958964	 18.9296958964;
	35272	 35647	 0.0197463	 0.0688305	 0.0159638	 244.0	 244.0	 244.0	 0.0	 0.0	 1	 -18.9296958964	 18.9296958964;
	35272	 36598	 0.0170136	 0.0662009	 0.0176863	 159.0	 159.0	 159.0	 0.0	 0.0	 1	 -18.9296958964	 18.9296958964;
	35275	 35701	 0.00387771	 0.0147394	 0.00412597	 159.0	 159.0	 159.0	 0.0	 0.0	 1	 -18.9296958964	 18.9296958964;
	35275	 76191	 0.0120306	 0.0716833	 0.0188643	 205.0	 205.0	 205.0	 0.0	 0.0	 1	 -18.9296958964	 18.9296958964;
	35276	 35717	 0.00192396	 0.00711374	 0.00210738	 159.0	 159.0	 159.0	 0.0	 0.0	 1	 -18.9296958964	 18.9296958964;
	35276	 35729	 0.00559358	 0.0136916	 0.00374559	 118.0	 118.0	 118.0	 0.0	 0.0	 1	 -18.9296958964	 18.9296958964;
	35277	 36408	 0.0147921	 0.0371857	 0.00963422	 244.0	 244.0	 244.0	 0.0	 0.0	 1	 -18.9296958964	 18.9296958964;
	35277	 36410	 0.0426584	 0.101073	 0.0295863	 118.0	 118.0	 118.0	 0.0	 0.0	 1	 -18.9296958964	 18.9296958964;
	35279	 35435	 0.0188642	 0.0461794	 0.0126347	 118.0	 118.0	 118.0	 0.0	 0.0	 1	 -18.9296958964	 18.9296958964;
	35279	 35678	 0.015987	 0.0491038	 0.00847551	 118.0	 118.0	 118.0	 0.0	 0.0	 1	 -18.9296958964	 18.9296958964;
	35279	 75820	 0.0103746	 0.0346104	 0.00877809	 142.0	 142.0	 142.0	 0.0	 0.0	 1	 -18.9296958964	 18.9296958964;
	35280	 36523	 0.010522	 0.0334114	 0.00937356	 142.0	 142.0	 142.0	 0.0	 0.0	 1	 -18.9296958964	 18.9296958964;
	35281	 36419	 0.0192277	 0.0446374	 0.0136006	 244.0	 244.0	 244.0	 0.0	 0.0	 1	 -18.9296958964	 18.9296958964;
	35281	 76049	 0.00750827	 0.0198484	 0.00576658	 128.0	 128.0	 128.0	 0.0	 0.0	 1	 -18.9296958964	 18.9296958964;
	35285	 36522	 0.0319544	 0.0821432	 0.00127129	 59.0	 9999.0	 9999.0	 0.0	 0.0	 1	 -18.9296958964	 18.9296958964;
	35285	 36537	 0.0141679	 0.048601	 0.000727696	 71.0	 9999.0	 9999.0	 0.0	 0.0	 1	 -18.9296958964	 18.9296958964;
	35286	 36495	 0.00243974	 0.0200059	 0.036042	 533.0	 533.0	 533.0	 0.0	 0.0	 1	 -18.9296958964	 18.9296958964;
	35286	 76243	 0.00376926	 0.0222555	 0.0391097	 533.0	 533.0	 533.0	 0.0	 0.0	 1	 -18.9296958964	 18.9296958964;
	35287	 35711	 0.0078665	 0.0207954	 0.00604173	 128.0	 128.0	 128.0	 0.0	 0.0	 1	 -18.9296958964	 18.9296958964;
	35287	 75845	 0.0229621	 0.0543829	 0.0159116	 118.0	 118.0	 118.0	 0.0	 0.0	 1	 -18.9296958964	 18.9296958964;
	35288	 35490	 0.254591	 0.68435	 0.00970808	 59.0	 9999.0	 9999.0	 0.0	 0.0	 1	 -18.9296958964	 18.9296958964;
	35288	 36063	 0.0649698	 0.177508	 0.00301525	 64.0	 9999.0	 9999.0	 0.0	 0.0	 1	 -18.9296958964	 18.9296958964;
	35288	 75836	 0.0277789	 0.101745	 0.00257094	 88.0	 9999.0	 9999.0	 0.0	 0.0	 1	 -18.9296958964	 18.9296958964;
	35289	 35430	 0.00323981	 0.0118558	 0.00248954	 153.3	 153.3	 153.3	 0.0	 0.0	 1	 -18.9296958964	 18.9296958964;
	35289	 75683	 0.00547311	 0.0173786	 0.00487529	 142.0	 142.0	 142.0	 0.0	 0.0	 1	 -18.9296958964	 18.9296958964;
	35291	 36593	 0.108524	 0.257044	 0.00470079	 59.0	 9999.0	 9999.0	 0.0	 0.0	 1	 -18.9296958964	 18.9296958964;
	35291	 76092	 0.141131	 0.334329	 0.0061153	 59.0	 9999.0	 9999.0	 0.0	 0.0	 1	 -18.9296958964	 18.9296958964;
	35294	 36592	 0.00472624	 0.018183	 0.00496638	 159.0	 159.0	 159.0	 0.0	 0.0	 1	 -18.9296958964	 18.9296958964;
	35294	 36594	 0.0183861	 0.0715441	 0.0191146	 159.0	 159.0	 159.0	 0.0	 0.0	 1	 -18.9296958964	 18.9296958964;
	35295	 36144	 0.0259572	 0.0697002	 0.0158002	 118.0	 118.0	 118.0	 0.0	 0.0	 1	 -18.9296958964	 18.9296958964;
	35297	 35543	 0.0218347	 0.051712	 0.0151298	 118.0	 118.0	 118.0	 0.0	 0.0	 1	 -18.9296958964	 18.9296958964;
	35297	 35740	 0.018287	 0.0603575	 0.0156479	 142.0	 142.0	 142.0	 0.0	 0.0	 1	 -18.9296958964	 18.9296958964;
	35298	 36142	 0.0187696	 0.0596084	 0.0167258	 142.0	 142.0	 142.0	 0.0	 0.0	 1	 -18.9296958964	 18.9296958964;
	35298	 76104	 0.0220914	 0.0532443	 0.0150354	 118.0	 118.0	 118.0	 0.0	 0.0	 1	 -18.9296958964	 18.9296958964;
	35300	 35611	 0.0340527	 0.0944686	 0.0200553	 118.0	 118.0	 118.0	 0.0	 0.0	 1	 -18.9296958964	 18.9296958964;
	35300	 35701	 0.00928844	 0.0264302	 0.00532369	 118.0	 118.0	 118.0	 0.0	 0.0	 1	 -18.9296958964	 18.9296958964;
	35300	 75756	 0.0416344	 0.111834	 0.0253613	 118.0	 118.0	 118.0	 0.0	 0.0	 1	 -18.9296958964	 18.9296958964;
	35301	 35696	 0.015077	 0.0441599	 0.00839067	 118.0	 118.0	 118.0	 0.0	 0.0	 1	 -18.9296958964	 18.9296958964;
	35301	 76299	 0.0594958	 0.15741	 0.0368925	 118.0	 118.0	 118.0	 0.0	 0.0	 1	 -18.9296958964	 18.9296958964;
	35301	 76303	 0.0121635	 0.030577	 0.0079218	 205.0	 205.0	 205.0	 0.0	 0.0	 1	 -18.9296958964	 18.9296958964;
	35302	 36421	 0.0210966	 0.0542383	 0.0134326	 118.0	 118.0	 118.0	 0.0	 0.0	 1	 -18.9296958964	 18.9296958964;
	35302	 75712	 0.0528378	 0.139762	 0.0327471	 118.0	 140.0	 140.0	 0.0	 0.0	 1	 -18.9296958964	 18.9296958964;
	35303	 35735	 0.00788929	 0.0237979	 0.0407865	 544.0	 544.0	 544.0	 0.0	 0.0	 1	 -18.9296958964	 18.9296958964;
	35303	 36495	 0.0111373	 0.0468998	 0.0824338	 265.0	 265.0	 265.0	 0.0	 0.0	 1	 -18.9296958964	 18.9296958964;
	35305	 35669	 0.0113506	 0.0321549	 0.0504727	 196.0	 196.0	 196.0	 0.0	 0.0	 1	 -18.9296958964	 18.9296958964;
	35305	 36292	 0.0285715	 0.123433	 0.208695	 265.0	 265.0	 265.0	 0.0	 0.0	 1	 -18.9296958964	 18.9296958964;
	35305	 75682	 0.0131718	 0.0365431	 0.0598647	 296.0	 296.0	 296.0	 0.0	 0.0	 1	 -18.9296958964	 18.9296958964;
	35306	 35554	 0.00467673	 0.0131123	 0.0210089	 196.0	 196.0	 196.0	 0.0	 0.0	 1	 -18.9296958964	 18.9296958964;
	35307	 35842	 0.00268806	 0.00675706	 0.00175051	 244.0	 244.0	 244.0	 0.0	 0.0	 1	 -18.9296958964	 18.9296958964;
	35307	 35843	 0.00304395	 0.00765168	 0.00198227	 244.0	 244.0	 244.0	 0.0	 0.0	 1	 -18.9296958964	 18.9296958964;
	35308	 36653	 0.00209378	 0.0148054	 0.125545	 695.4	 695.4	 695.4	 0.0	 0.0	 1	 -18.9296958964	 18.9296958964;
	35308	 76853	 0.015104	 0.0426803	 0.343708	 797.0	 797.0	 797.0	 0.0	 0.0	 1	 -18.9296958964	 18.9296958964;
	35309	 37069	 0.00152523	 0.0107826	 2.24067	 1216.0	 1216.0	 1216.0	 0.0	 0.0	 1	 -18.9296958964	 18.9296958964;
	35309	 37678	 0.000338144	 0.00475295	 1.8808	 2896.0	 2896.0	 2896.0	 0.0	 0.0	 1	 -18.9296958964	 18.9296958964;
	35311	 36648	 0.000354853	 0.00500066	 1.16441	 1925.0	 1925.0	 1925.0	 0.0	 0.0	 1	 -18.9296958964	 18.9296958964;
	35311	 36774	 7.33008e-05	 0.00137472	 0.275425	 2213.0	 2213.0	 2213.0	 0.0	 0.0	 1	 -18.9296958964	 18.9296958964;
	35326	 37078	 0.02387	 0.101076	 0.0305123	 222.2	 222.2	 222.2	 0.0	 0.0	 1	 -18.9296958964	 18.9296958964;
	35327	 37444	 0.00835849	 0.0236754	 0.0371562	 259.0	 259.0	 259.0	 0.0	 0.0	 1	 -18.9296958964	 18.9296958964;
	35327	 76454	 0.00420979	 0.0242432	 0.0400266	 418.0	 418.0	 418.0	 0.0	 0.0	 1	 -18.9296958964	 18.9296958964;
	35328	 36705	 0.0353648	 0.0821235	 0.0250302	 118.0	 118.0	 118.0	 0.0	 0.0	 1	 -18.9296958964	 18.9296958964;
	35328	 36705	 0.035365	 0.082124	 0.02503	 118.0	 118.0	 118.0	 0.0	 0.0	 1	 -18.9296958964	 18.9296958964;
	35328	 37013	 0.007731	 0.020755	 0.004704	 234.0	 234.0	 234.0	 0.0	 0.0	 1	 -18.9296958964	 18.9296958964;
	35328	 37013	 0.007731	 0.020755	 0.004704	 234.0	 234.0	 234.0	 0.0	 0.0	 1	 -18.9296958964	 18.9296958964;
	35328	 37479	 0.067145	 0.137619	 0.054269	 238.0	 238.0	 238.0	 0.0	 0.0	 1	 -18.9296958964	 18.9296958964;
	35330	 37091	 0.00188227	 0.00549182	 0.00105132	 118.0	 118.0	 118.0	 0.0	 0.0	 1	 -18.9296958964	 18.9296958964;
	35330	 37092	 0.00393534	 0.00892658	 0.00284927	 118.0	 118.0	 118.0	 0.0	 0.0	 1	 -18.9296958964	 18.9296958964;
	35331	 37510	 0.0293009	 0.0717398	 0.0196317	 120.1	 120.1	 120.1	 0.0	 0.0	 1	 -18.9296958964	 18.9296958964;
	35332	 36616	 0.00692303	 0.0166834	 0.00471039	 118.0	 118.0	 118.0	 0.0	 0.0	 1	 -18.9296958964	 18.9296958964;
	35332	 36617	 0.0100975	 0.0247165	 0.00676183	 118.0	 118.0	 118.0	 0.0	 0.0	 1	 -18.9296958964	 18.9296958964;
	35332	 37710	 0.00959988	 0.0217761	 0.00695087	 118.0	 118.0	 118.0	 0.0	 0.0	 1	 -18.9296958964	 18.9296958964;
	35334	 37415	 0.000908649	 0.0027592	 0.00466244	 213.0	 213.0	 213.0	 0.0	 0.0	 1	 -18.9296958964	 18.9296958964;
	35335	 36823	 0.0115384	 0.0282439	 0.00772693	 118.0	 118.0	 118.0	 0.0	 0.0	 1	 -18.9296958964	 18.9296958964;
	35335	 37610	 0.00822482	 0.0241867	 0.00793315	 142.0	 142.0	 142.0	 0.0	 0.0	 1	 -18.9296958964	 18.9296958964;
	35335	 37611	 0.00887606	 0.0328205	 0.00972348	 159.0	 159.0	 159.0	 0.0	 0.0	 1	 -18.9296958964	 18.9296958964;
	35335	 37612	 0.0263286	 0.0887388	 0.0220636	 142.0	 142.0	 142.0	 0.0	 0.0	 1	 -18.9296958964	 18.9296958964;
	35335	 37692	 0.0306331	 0.122301	 0.0215458	 142.0	 142.0	 142.0	 0.0	 0.0	 1	 -18.9296958964	 18.9296958964;
	35336	 37654	 0.063513	 0.17378	 0.0473136	 244.0	 244.0	 244.0	 0.0	 0.0	 1	 -18.9296958964	 18.9296958964;
	35336	 75566	 0.00467578	 0.0143592	 0.0043112	 244.0	 244.0	 244.0	 0.0	 0.0	 1	 -18.9296958964	 18.9296958964;
	35336	 76810	 0.00928349	 0.0331656	 0.010536	 205.0	 205.0	 205.0	 0.0	 0.0	 1	 -18.9296958964	 18.9296958964;
	35337	 37100	 0.00217817	 0.00805369	 0.00238583	 163.9	 163.9	 163.9	 0.0	 0.0	 1	 -18.9296958964	 18.9296958964;
	35338	 76450	 0.017777	 0.051453	 0.39602	 394.0	 394.0	 394.0	 0.0	 0.0	 1	 -18.9296958964	 18.9296958964;
	35343	 48707	 0.00789625	 0.0445819	 1.64789	 818.5	 818.5	 818.5	 0.0	 0.0	 1	 -18.9296958964	 18.9296958964;
	35345	 37896	 0.000700566	 0.00984393	 0.710513	 1893.0	 1893.0	 1893.0	 0.0	 0.0	 1	 -18.9296958964	 18.9296958964;
	35345	 48714	 0.000623708	 0.0227021	 2.26443	 4547.0	 4547.0	 4547.0	 0.0	 0.0	 1	 -18.9296958964	 18.9296958964;
	35347	 35348	 4.2e-05	 0.000272	 0.010293	 1044.0	 1044.0	 1044.0	 0.0	 0.0	 1	 -18.9296958964	 18.9296958964;
	35347	 35348	 4.2e-05	 0.000272	 0.010293	 1044.0	 1044.0	 1044.0	 0.0	 0.0	 1	 -18.9296958964	 18.9296958964;
	35347	 38362	 0.000309	 0.003771	 0.269566	 825.0	 825.0	 825.0	 0.0	 0.0	 1	 -18.9296958964	 18.9296958964;
	35347	 38362	 0.000309	 0.003771	 0.269566	 825.0	 825.0	 825.0	 0.0	 0.0	 1	 -18.9296958964	 18.9296958964;
	35349	 37844	 0.0228252	 0.0735188	 0.0200443	 149.9	 149.9	 149.9	 0.0	 0.0	 1	 -18.9296958964	 18.9296958964;
	35349	 38056	 0.00521283	 0.0162937	 0.00471937	 244.0	 244.0	 244.0	 0.0	 0.0	 1	 -18.9296958964	 18.9296958964;
	35349	 38058	 0.00243724	 0.0232579	 0.00942632	 317.0	 317.0	 317.0	 0.0	 0.0	 1	 -18.9296958964	 18.9296958964;
	35349	 38059	 0.0101143	 0.056839	 0.0168444	 205.0	 205.0	 205.0	 0.0	 0.0	 1	 -18.9296958964	 18.9296958964;
	35350	 38370	 0.000715815	 0.0100587	 0.726073	 1893.0	 1893.0	 1893.0	 0.0	 0.0	 1	 -18.9296958964	 18.9296958964;
	35354	 37918	 0.00248391	 0.0139002	 0.00290478	 185.0	 185.0	 185.0	 0.0	 0.0	 1	 -18.9296958964	 18.9296958964;
	35354	 37919	 0.004835	 0.0224323	 0.00418855	 159.0	 159.0	 159.0	 0.0	 0.0	 1	 -18.9296958964	 18.9296958964;
	35354	 37920	 0.00304711	 0.0153094	 0.00398407	 185.0	 185.0	 185.0	 0.0	 0.0	 1	 -18.9296958964	 18.9296958964;
	35354	 37925	 0.00490283	 0.0196205	 0.00662785	 175.0	 175.0	 175.0	 0.0	 0.0	 1	 -18.9296958964	 18.9296958964;
	35354	 37946	 0.010474	 0.028615	 0.00777656	 156.1	 156.1	 156.1	 0.0	 0.0	 1	 -18.9296958964	 18.9296958964;
	35355	 37739	 0.00190755	 0.00633463	 0.0451893	 320.0	 320.0	 320.0	 0.0	 0.0	 1	 -18.9296958964	 18.9296958964;
	35356	 38015	 0.00127744	 0.00927467	 0.00320469	 272.3	 272.3	 272.3	 0.0	 0.0	 1	 -18.9296958964	 18.9296958964;
	35356	 38016	 0.00356704	 0.0219178	 0.00801402	 272.3	 272.3	 272.3	 0.0	 0.0	 1	 -18.9296958964	 18.9296958964;
	35357	 38131	 0.00370766	 0.0240703	 0.0479558	 366.0	 366.0	 366.0	 0.0	 0.0	 1	 -18.9296958964	 18.9296958964;
	35358	 37749	 0.0103884	 0.03111	 0.00700819	 129.8	 129.8	 129.8	 0.0	 0.0	 1	 -18.9296958964	 18.9296958964;
	35360	 38080	 0.00699966	 0.0280248	 0.00706047	 159.0	 159.0	 159.0	 0.0	 0.0	 1	 -18.9296958964	 18.9296958964;
	35360	 38322	 0.0478722	 0.188779	 0.0341738	 142.0	 142.0	 142.0	 0.0	 0.0	 1	 -18.9296958964	 18.9296958964;
	35362	 75779	 0.011664	 0.073654	 0.586515	 482.0	 482.0	 482.0	 0.0	 0.0	 1	 -18.9296958964	 18.9296958964;
	35365	 38376	 0.0259355	 0.101982	 0.026695	 159.0	 159.0	 159.0	 0.0	 0.0	 1	 -18.9296958964	 18.9296958964;
	35366	 38019	 0.0186449	 0.0456424	 0.0124878	 118.0	 118.0	 118.0	 0.0	 0.0	 1	 -18.9296958964	 18.9296958964;
	35366	 38283	 0.0264055	 0.0773518	 0.0147	 118.0	 118.0	 118.0	 0.0	 0.0	 1	 -18.9296958964	 18.9296958964;
	35366	 38285	 0.00670283	 0.0268244	 0.00906158	 175.0	 175.0	 175.0	 0.0	 0.0	 1	 -18.9296958964	 18.9296958964;
	35366	 76993	 0.0334757	 0.102862	 0.0309056	 142.0	 142.0	 142.0	 0.0	 0.0	 1	 -18.9296958964	 18.9296958964;
	35367	 38134	 0.007834	 0.0160319	 0.00631225	 118.0	 118.0	 118.0	 0.0	 0.0	 1	 -18.9296958964	 18.9296958964;
	35367	 77143	 0.0131508	 0.0395851	 0.0123854	 142.0	 142.0	 142.0	 0.0	 0.0	 1	 -18.9296958964	 18.9296958964;
	35368	 37771	 0.0294005	 0.235352	 0.00482101	 131.0	 9999.0	 9999.0	 0.0	 0.0	 1	 -18.9296958964	 18.9296958964;
	35368	 38076	 0.0255821	 0.0984217	 0.00168017	 80.0	 9999.0	 9999.0	 0.0	 0.0	 1	 -18.9296958964	 18.9296958964;
	35368	 38079	 0.0102583	 0.0623436	 0.00115012	 110.0	 9999.0	 9999.0	 0.0	 0.0	 1	 -18.9296958964	 18.9296958964;
	35370	 38374	 0.0251817	 0.0625024	 0.00103864	 59.0	 9999.0	 9999.0	 0.0	 0.0	 1	 -18.9296958964	 18.9296958964;
	35370	 77272	 0.0176634	 0.0418267	 0.000764724	 59.0	 9999.0	 9999.0	 0.0	 0.0	 1	 -18.9296958964	 18.9296958964;
	35370	 77274	 0.0031253	 0.00725457	 0.000138131	 59.0	 9999.0	 9999.0	 0.0	 0.0	 1	 -18.9296958964	 18.9296958964;
	35371	 38080	 0.0061775	 0.0196153	 0.0055028	 142.0	 142.0	 142.0	 0.0	 0.0	 1	 -18.9296958964	 18.9296958964;
	35371	 38081	 0.0116066	 0.0306754	 0.00718034	 118.0	 118.0	 118.0	 0.0	 0.0	 1	 -18.9296958964	 18.9296958964;
	35371	 38115	 0.0279747	 0.0842336	 0.0263656	 142.0	 142.0	 142.0	 0.0	 0.0	 1	 -18.9296958964	 18.9296958964;
	35372	 37831	 0.00839392	 0.0194844	 0.000370994	 89.0	 9999.0	 9999.0	 0.0	 0.0	 1	 -18.9296958964	 18.9296958964;
	35372	 37841	 0.0230595	 0.057235	 0.000951106	 59.0	 9999.0	 9999.0	 0.0	 0.0	 1	 -18.9296958964	 18.9296958964;
	35372	 37842	 0.0095206	 0.0236304	 0.000392676	 59.0	 9999.0	 9999.0	 0.0	 0.0	 1	 -18.9296958964	 18.9296958964;
	35373	 37838	 0.0203595	 0.0482173	 0.014107	 118.0	 118.0	 118.0	 0.0	 0.0	 1	 -18.9296958964	 18.9296958964;
	35373	 38219	 0.00643264	 0.0145914	 0.00465745	 118.0	 118.0	 118.0	 0.0	 0.0	 1	 -18.9296958964	 18.9296958964;
	35375	 38112	 0.0148546	 0.0404427	 0.000556871	 59.0	 9999.0	 9999.0	 0.0	 0.0	 1	 -18.9296958964	 18.9296958964;
...